121
Lattice="10.341746277552646 0.0 0.0 -2.619435405085487e-16 11.467 0.0 0.0 0.0 23.497200848665354" Properties=species:S:1:pos:R:3:forces:R:3 energy=-871.520600146642 dipole="-15.172128854313415 23.989179511567148 -1.075345412684547" pbc="T T F"
O       8.47657182       1.91117250       6.00000000      -1.90583725       0.01185809       1.48418691 
O       3.30569868       0.00000000       6.00000000      -1.87838260      -0.00781422       1.53071674 
Ti       1.41275186       0.00000000       6.75295684       3.85506696       0.02854537       2.03294997 
Ti       6.58362500       1.91117250       6.75295684       3.93478977      -0.11132262       1.99777791 
Ti       9.52224953       1.91117250       7.64087763      -1.82402562      -0.09740728      -1.55277149 
Ti       4.35137640       0.00000000       7.64087763      -1.92521801       0.02259203      -1.99226002 
O       9.86155132       0.00000000       7.50591367       0.92323474      -0.06341430      -0.23143345 
O       4.69067818       1.91117250       7.50591367       0.87629035       0.06812659      -0.21030269 
O       7.62930272       1.91117250       8.39383447      -0.99008797       0.01652117      -0.86743701 
O       2.45842958       0.00000000       8.39383447      -0.84764473      -0.01297089      -0.61558852 
O       6.24432321       0.00000000       6.88792080      -0.20822230      -0.01634443      -0.75137114 
O       1.07345007       1.91117250       6.88792080      -0.16603675       0.14326086      -0.73638813 
O       9.79484229       1.89825620       9.59728530       0.00166414      -0.00370989      -0.01509474 
O       4.63320031      11.44548291       9.57770023       0.00074850      -0.00149381       0.00114940 
Ti       2.75115067      11.44642229      10.39033040      -0.01513356       0.00765289      -0.00544142 
Ti       8.02502140       1.89115760      10.34909459      -0.01555237       0.00966505       0.02584985 
Ti       0.52180783       1.90062053      11.30569735       0.00644399      -0.00144214       0.04262971 
Ti       5.65182058       0.01864970      11.12531432       0.00133114       0.01346342      -0.00262716 
O       0.91421426      11.45131382      11.07571847      -0.00103036      -0.00054997       0.00439979 
O       6.05959055       1.89049281      11.07284264      -0.00059254       0.01652567       0.00213034 
O       9.01476274       1.93163025      11.96156308      -0.00144749       0.01947503      -0.00287997 
O       3.85721168      11.45027437      11.94325929       0.01117221       0.00270714       0.00137505 
O       7.56757639      -0.00113837      10.44686366       0.00262072       0.00280076       0.00004357 
O       2.39641113       1.90590767      10.45253075      -0.01187452       0.00788483       0.00174738 
O       0.88945942       1.85046741      13.13821210      -0.00901297       0.01490675       0.01394273 
O       6.09909332      11.44805521      13.07037207      -0.00426801      -0.00002750      -0.00520582 
Ti       4.21380070      11.43023659      14.01949392       0.02028607      -0.00850444       0.00292459 
Ti       9.49302631       1.86230490      14.00839366       0.02839085       0.00009335      -0.00314303 
Ti       1.95007990       1.88655845      15.07177512       0.01364691      -0.00464585      -0.00161834 
Ti       7.00762074      -0.01968394      14.59629532       0.00364164      -0.00902054       0.00256777 
O       2.39709453      11.41315913      14.79728270       0.01460024       0.01392886      -0.01717733 
O       7.51528231       1.85054489      14.79907691       0.00431338      -0.00273557       0.01418449 
O       0.16900893       1.89034719      15.51454012      -0.00592904      -0.02956944       0.02043658 
O       5.39019522      11.42162104      15.44958818       0.00294859       0.00215043      -0.00696209 
O       9.03134384      11.44960564      13.95325866      -0.00701109       0.00037639       0.00401705 
O       3.87504529       1.88487338      13.97781832       0.00323161       0.00326950      -0.00231127 
O       8.47657182       5.73351750       6.00000000      -1.90683891       0.00124480       1.60759667 
O       3.30569868       3.82234500       6.00000000      -1.90803324       0.01435066       1.58959827 
Ti       1.41275186       3.82234500       6.75295684       3.63576944      -0.14492974       1.77612169 
Ti       6.58362500       5.73351750       6.75295684       3.61093047      -0.01915970       1.70649777 
Ti       9.52224953       5.73351750       7.64087763      -1.53227443      -0.02429273      -1.66637944 
Ti       4.35137640       3.82234500       7.64087763      -1.58847071      -0.10827536      -1.72660292 
O       9.86155132       3.82234500       7.50591367       0.95530607       0.13317108      -0.24232478 
O       4.69067818       5.73351750       7.50591367       0.92942155       0.00696514      -0.21324994 
O       7.62930272       5.73351750       8.39383447      -0.90963276      -0.01985206      -0.71501175 
O       2.45842958       3.82234500       8.39383447      -0.86583097       0.02206341      -0.68573770 
O       6.24432321       3.82234500       6.88792080      -0.23584861       0.17140207      -0.69086883 
O       1.07345007       5.73351750       6.88792080      -0.21528363       0.01898911      -0.68224250 
O       9.79804830       5.72375602       9.61234106      -0.00525645      -0.00133051       0.00872296 
O       4.63666010       3.80517275       9.60126963       0.00676058       0.00374395       0.01303722 
Ti       2.75935358       3.76383729      10.32309004      -0.00044679      -0.00567228       0.00141856 
Ti       7.95138732       5.71603336      10.30612353      -0.00809868       0.00941794      -0.00310017 
Ti       0.58728545       5.72457100      11.20931582       0.00890271       0.00748150       0.01891461 
Ti       5.72301019       3.77339059      11.17774092       0.01028746      -0.01309712       0.00954948 
O       0.91642499       3.80892943      11.09325619       0.00498343       0.00403477      -0.00166181 
O       6.07819240       5.71771681      11.11122514      -0.00229459      -0.02091871       0.01124327 
O       9.00277469       5.68465473      11.95843435      -0.00322545      -0.02495796       0.00455142 
O       3.84358147       3.83353776      11.94529045       0.01911058       0.00278200       0.01989104 
O       7.54801004       3.81401160      10.44656777      -0.01872189      -0.00227355       0.00516315 
O       2.37694303       5.72983607      10.45074126      -0.00725359      -0.00298074       0.00560279 
O       0.86390305       5.72972010      13.17338715      -0.00916114       0.00103498       0.00368725 
O       6.07543595       3.65993253      13.15196524       0.00174488       0.00187276       0.02306843 
Ti       4.05875945       3.71443261      13.82163965       0.01710767       0.00332387      -0.00448657 
Ti       9.36641400       5.75413092      13.77444682       0.00231952      -0.00125549       0.01582022 
Ti       2.02481389       5.82158318      14.84766075       0.00716640       0.00753438      -0.01400107 
Ti       7.14206254       3.72307795      14.66245833      -0.01148049       0.01794636      -0.00425210 
O       2.32583319       3.80008424      14.60993154       0.00816757      -0.00180292      -0.00264507 
O       7.50631720       5.69661211      14.56990873       0.00074997       0.01569330       0.01121635 
O       0.13801598       5.92669872      15.59071861       0.01814192       0.00595014       0.00353093 
O       5.21082012       4.16203761      15.45094123       0.00761354       0.00449390       0.00704689 
O       8.98756463       3.79744055      14.12407083       0.00178608       0.01153373      -0.02034039 
O       3.70081945       5.78959303      13.91840011       0.01210648       0.00008734       0.00235149 
O       8.47657182       9.55586250       6.00000000      -1.88231592      -0.02213296       1.54461490 
O       3.30569868       7.64469000       6.00000000      -1.88710617      -0.01641619       1.60431118 
Ti       1.41275186       7.64469000       6.75295684       3.62860499       0.10460712       1.76030493 
Ti       6.58362500       9.55586250       6.75295684       3.86767107       0.12624555       1.99860968 
Ti       9.52224953       9.55586250       7.64087763      -1.94414176       0.11995248      -1.98261880 
Ti       4.35137640       7.64469000       7.64087763      -1.55512706       0.09451313      -1.67847046 
O       9.86155132       7.64469000       7.50591367       0.95728476      -0.13601999      -0.23112281 
O       4.69067818       9.55586250       7.50591367       0.88334489      -0.15964219      -0.20956968 
O       7.62930272       9.55586250       8.39383447      -0.84864087      -0.04447027      -0.57999833 
O       2.45842958       7.64469000       8.39383447      -0.86780477      -0.03752515      -0.60313540 
O       6.24432321       7.64469000       6.88792080      -0.24686401      -0.16062169      -0.68414493 
O       1.07345007       9.55586250       6.88792080      -0.16992467      -0.16485453      -0.74386757 
O       9.80622588       9.54090233       9.57732655       0.00277071       0.00486908       0.00867544 
O       4.63589317       7.62837105       9.61461616       0.00025667       0.00346699      -0.00640756 
Ti       2.79175154       7.64107771      10.31547730      -0.00015731      -0.00191411      -0.00041786 
Ti       7.91305796       9.58181450      10.38843135      -0.00181161      -0.01308366      -0.00244134 
Ti       0.48725532       9.52819902      11.11754601       0.00280135      -0.00285412      -0.00461258 
Ti       5.74563234       7.60748578      11.22035033       0.00601164      -0.00078773       0.00386147 
O       0.90330256       7.63121030      11.08667196       0.00653022       0.00170529      -0.00675237 
O       6.09244866       9.54546309      11.07959846       0.00712666       0.00861958      -0.00116957 
O       9.02451043       9.54538453      11.94394608       0.00690747       0.00148717       0.00122941 
O       3.84077817       7.63363788      11.95860422       0.00740651       0.00163487       0.00809214 
O       7.55074608       7.61671809      10.45647133       0.00536985       0.00099040       0.00674252 
O       2.38697851       9.53273271      10.44399252      -0.00483430      -0.00028054       0.00558297 
O       0.91128233       9.55766062      13.06313814       0.00402147      -0.00844582      -0.00264896 
O       6.03677599       7.70283002      13.19932086      -0.00118219       0.00282139      -0.00284477 
Ti       4.24948214       7.66910224      13.79492803       0.00236739       0.00353404       0.01043707 
Ti       9.34792666       9.58568993      13.98853799      -0.00684706       0.00189483       0.00449393 
Ti       1.84148989       9.56119796      14.57346002      -0.00173881      -0.01331658       0.00773883 
Ti       7.22279495       7.54114356      14.93432333      -0.00049565      -0.00853244      -0.00597154 
O       2.34885507       7.71346269      14.79920312       0.00215611      -0.00205575       0.00529634 
O       7.55411535       9.55732046      14.79858495       0.00566017       0.00819273       0.00048061 
O       0.21298133       9.55347397      15.45357501       0.00185154      -0.00177264      -0.00292710 
O       5.36414886       7.20807293      15.61739125      -0.01238959       0.00121726       0.00596261 
O       8.99002733       7.62941770      13.93716118      -0.00816256      -0.00648132      -0.01191133 
O       3.87371913       9.53139872      13.96042043      -0.00487732      -0.00863571       0.00964808 
V       9.67641064       6.69287524      17.02277087       0.00863722       0.00246706      -0.00571095 
V       4.71205754       5.65609309      16.37850702      -0.00198519      -0.00075987      -0.00474100 
O       2.97984921       5.69501868      16.54464235       0.00030145      -0.00000276       0.00397754 
O       9.44250705       5.49338018      18.07537135       0.01391114      -0.00820276       0.01186916 
O       8.13077673       7.42344140      16.55468959       0.01011645       0.00215612       0.01363162 
O       0.42404398       7.91971371      17.67444045       0.00999616      -0.00678691       0.00038633 
O       2.60532440       1.95072674      16.74887318       0.01218978       0.00576587      -0.00500454 
O       7.54347339       3.85205091      16.78837561      -0.01159606       0.00006216       0.02386686 
O       5.41268894       5.48218133      17.82068953      -0.00236969      -0.00156040       0.00241253 
H       6.80346238       4.29480810      17.30124822       0.00034421       0.01266527       0.02303330 
H       0.37760255       8.69766086      17.02925223      -0.01897081      -0.00359411      -0.00196714 
H       8.37115289       4.25846586      17.18933016      -0.01749389      -0.00515383       0.00956990 
H       2.34713839       2.43959220      17.55949403      -0.03082149       0.01322957      -0.01061767 
