118
Lattice="10.341746277552646 0.0 0.0 -2.619435405085487e-16 11.467 0.0 0.0 0.0 23.497200848665354" Properties=species:S:1:pos:R:3:forces:R:3 energy=-858.4108156356258 dipole="-15.126186646328529 -14.147614069634635 -1.3052167514896418" pbc="T T F"
O       8.47657182       1.91117250       6.00000000      -1.86711937       0.00997614       1.54901853 
O       3.30569868       0.00000000       6.00000000      -1.88926389       0.00231403       1.54258314 
Ti       1.41275186       0.00000000       6.75295684       3.86359748       0.00145944       1.98641383 
Ti       6.58362500       1.91117250       6.75295684       3.86788255      -0.08840972       1.99868760 
Ti       9.52224953       1.91117250       7.64087763      -1.96496649      -0.05967690      -2.03505169 
Ti       4.35137640       0.00000000       7.64087763      -1.90120457       0.00196291      -2.04199485 
O       9.86155132       0.00000000       7.50591367       0.91818698       0.00230116      -0.20895924 
O       4.69067818       1.91117250       7.50591367       0.88338854       0.09349224      -0.20868056 
O       7.62930272       1.91117250       8.39383447      -0.81506516       0.04992090      -0.56614447 
O       2.45842958       0.00000000       8.39383447      -0.82374768      -0.00738369      -0.57723459 
O       6.24432321       0.00000000       6.88792080      -0.21185927      -0.00446532      -0.74473232 
O       1.07345007       1.91117250       6.88792080      -0.17422425       0.12588179      -0.74033896 
O       9.81093123       1.91304275       9.57774490      -0.01337800       0.00027589      -0.01343399 
O       4.64336194       0.00975816       9.57618901      -0.00602081      -0.00181473      -0.01715454 
Ti       2.74543103       0.00543447      10.38965543      -0.00467782      -0.00394811      -0.00331603 
Ti       7.92764310       1.89949167      10.39044967      -0.00110622       0.00494509      -0.00444652 
Ti       0.48878672       1.93459584      11.12088161       0.01088876       0.00967007       0.00068259 
Ti       5.64278799      11.46843158      11.12500637       0.01313629       0.00564885       0.00068636 
O       0.91495382       0.00024195      11.07551205       0.00469273      -0.00415299      -0.00323172 
O       6.08957627       1.91700607      11.08135469       0.00585153      -0.00779099      -0.00530406 
O       9.03389693       1.92496483      11.94155548      -0.00460458       0.00848770       0.00507121 
O       3.86602205       0.00251732      11.93842473       0.00010662      -0.00275777       0.01784916 
O       7.56759642       0.00741988      10.44460546       0.00258296       0.00350262       0.00446059 
O       2.38792298       1.91760635      10.44061938      -0.00729929       0.00414157       0.00531611 
O       0.93618707       1.89023318      13.07139671      -0.00247732       0.00085168       0.00955916 
O       6.11608266       0.01651213      13.07775540       0.00117996       0.00368522       0.00210925 
Ti       4.22816341       0.04748590      14.02756769       0.01353996      -0.00090567      -0.00230988 
Ti       9.39552730       1.89662319      14.01421213       0.00060954      -0.00089823      -0.00433702 
Ti       1.84290566       1.88617216      14.59941886       0.00941310      -0.00234224       0.01016434 
Ti       7.02360644       0.01488946      14.60088327       0.00691312      -0.00625245       0.00239664 
O       2.39656003       0.00567295      14.82161480       0.01741043      -0.00376474      -0.00822872 
O       7.57538189       1.90382396      14.80579843      -0.00244635      -0.01608447       0.00450757 
O       0.22112151       1.90171740      15.45025577      -0.00519270       0.00514510      -0.00646632 
O       5.40396676       0.03762889      15.45627099      -0.00855516      -0.00418008       0.00473556 
O       9.03033989      11.47688864      13.94650963       0.00209177      -0.00942728       0.00329364 
O       3.84132377       1.90207738      13.94324416      -0.00506204      -0.00756074      -0.00084034 
O       8.47657182       5.73351750       6.00000000      -1.95006213       0.00220300       1.61848979 
O       3.30569868       3.82234500       6.00000000      -1.91959727       0.01354967       1.58288175 
Ti       1.41275186       3.82234500       6.75295684       3.64987929      -0.08698592       1.74474728 
Ti       6.58362500       5.73351750       6.75295684       3.65426650      -0.00067496       1.70436693 
Ti       9.52224953       5.73351750       7.64087763      -1.50738527      -0.00533152      -1.61759198 
Ti       4.35137640       3.82234500       7.64087763      -1.53159504      -0.06735388      -1.66376394 
O       9.86155132       3.82234500       7.50591367       0.95735054       0.06347584      -0.23379045 
O       4.69067818       5.73351750       7.50591367       0.91614262       0.02927316      -0.21894071 
O       7.62930272       5.73351750       8.39383447      -0.99713611       0.02016444      -0.67669063 
O       2.45842958       3.82234500       8.39383447      -0.90158331       0.01327220      -0.67677070 
O       6.24432321       3.82234500       6.88792080      -0.23821040       0.13757160      -0.69043893 
O       1.07345007       5.73351750       6.88792080      -0.19743443       0.00406522      -0.68440974 
O       9.79216690       5.73621665       9.60171031       0.00261857       0.00115133      -0.00865113 
O       4.63745374       3.83485851       9.60566360      -0.00429638       0.00187224       0.00494630 
Ti       2.78763034       3.81073983      10.31171325      -0.00462088       0.00610355      -0.01205228 
Ti       7.99808263       5.74719277      10.29574655      -0.00284567       0.00307363      -0.00318887 
Ti       0.60871599       5.73821954      11.26567212       0.01095155      -0.00000553       0.00248858 
Ti       5.74010739       3.85171348      11.21744547       0.00688690       0.00595746      -0.00281699 
O       0.90653682       3.82128570      11.08237091       0.00446060       0.00054265      -0.00865648 
O       6.06314000       5.74963412      11.11158729      -0.00397174       0.00161537      -0.01043765 
O       9.03928399       5.74978672      11.94530874       0.00633098      -0.00044440       0.00676098 
O       3.82611735       3.80340439      11.94112849      -0.00309993       0.00802793       0.00712760 
O       7.54982206       3.84640513      10.45801768      -0.00759976      -0.00168127       0.00101215 
O       2.39212564       5.73459031      10.45070795      -0.00327016      -0.00058698       0.00512116 
O       0.89986353       5.73361524      13.15292915       0.00496071       0.00009878       0.01760426 
O       6.01557981       3.78749832      13.16325887      -0.01018909      -0.00547858       0.00233670 
Ti       4.19666063       3.80903737      13.78875366      -0.01977720      -0.00700017       0.00281479 
Ti       9.37650499       5.73276731      13.78630213      -0.00444387       0.01132514       0.00022648 
Ti       2.10904437       5.65937067      14.91020011       0.00169453       0.00525586       0.02495945 
Ti       7.22634983       3.86874443      14.84320456      -0.00598849       0.00197891      -0.02781114 
O       2.36443069       3.75973600      14.80021147       0.00424390      -0.01379650       0.00233701 
O       7.48540196       5.74461870      14.35725324       0.00065882      -0.01268541      -0.00815902 
O       0.19866337       5.75695882      15.49250786      -0.00000575       0.01589793       0.00299435 
O       5.32116374       3.80562651      15.47673213      -0.00785754      -0.00402860       0.00833000 
O       9.02801141       3.81990669      13.97007711      -0.00968728       0.00527909      -0.01219168 
O       3.74701873       5.70389391      13.91561482       0.00591713       0.00072568      -0.02671155 
O       8.47657182       9.55586250       6.00000000      -1.86736989      -0.01116859       1.54927778 
O       3.30569868       7.64469000       6.00000000      -1.90807820      -0.00718422       1.57614262 
Ti       1.41275186       7.64469000       6.75295684       3.63988290       0.08349094       1.74625179 
Ti       6.58362500       9.55586250       6.75295684       3.86333652       0.09415017       1.99137549 
Ti       9.52224953       9.55586250       7.64087763      -1.95263832       0.05959459      -2.01965272 
Ti       4.35137640       7.64469000       7.64087763      -1.53901244       0.06998000      -1.66394657 
O       9.86155132       7.64469000       7.50591367       0.95954714      -0.05593748      -0.24086478 
O       4.69067818       9.55586250       7.50591367       0.88288097      -0.06850137      -0.21126377 
O       7.62930272       9.55586250       8.39383447      -0.80911442      -0.01709940      -0.57121881 
O       2.45842958       7.64469000       8.39383447      -0.88331349      -0.02524537      -0.63636900 
O       6.24432321       7.64469000       6.88792080      -0.24033255      -0.12950861      -0.68691730 
O       1.07345007       9.55586250       6.88792080      -0.17531179      -0.12805763      -0.74102870 
O       9.81268213       9.55551077       9.57870796      -0.00770959      -0.00162821      -0.00951790 
O       4.63872399       7.65844416       9.60900043      -0.00682064      -0.00086747       0.00477903 
Ti       2.79085782       7.66786238      10.31276919       0.00028147      -0.00538461      -0.00134273 
Ti       7.93037495       9.58120625      10.38725281       0.00064483      -0.00113044      -0.00036274 
Ti       0.48690006       9.53923205      11.12822420       0.01625730      -0.00891049      -0.00191164 
Ti       5.73228570       7.62721718      11.22768875      -0.00120316      -0.00153116       0.00389911 
O       0.90982085       7.64987640      11.08270246      -0.00485109       0.00589937      -0.00101021 
O       6.08941198       9.57165316      11.07824776      -0.00045576      -0.00257925      -0.00786522 
O       9.03459803       9.56325791      11.94089645      -0.00143785      -0.00156679       0.00702634 
O       3.83877590       7.63652401      11.95032605      -0.01095371      -0.00295511       0.00345530 
O       7.55224041       7.63978826      10.45824063      -0.01149353      -0.00099592      -0.00130195 
O       2.39265680       9.54962649      10.44407587      -0.00120365       0.00214930       0.00710041 
O       0.92983560       9.57293815      13.08188421      -0.00715055      -0.01173448       0.00812793 
O       6.02968686       7.78235340      13.18308241      -0.00955278       0.00282479      -0.00218077 
Ti       4.16104914       7.74978386      13.81377025       0.00814362      -0.00705403       0.00867074 
Ti       9.40119837       9.60713554      14.01622939      -0.00153765       0.00469962       0.00654197 
Ti       1.84545744       9.55671337      14.61677002       0.00431304       0.00346586      -0.00124472 
Ti       7.21236185       7.63917171      14.77864420       0.01075242      -0.00457495      -0.00350320 
O       2.39288115       7.73081241      14.77872469      -0.00477760      -0.00104811       0.00831547 
O       7.55399425       9.59686768      14.81245814       0.00976693       0.00020764      -0.00782042 
O       0.21788703       9.58628398      15.45418767      -0.01645537       0.01226305      -0.00105345 
O       5.20554735       7.46066189      15.50666646      -0.00400783      -0.00735440      -0.00905600 
O       8.98384368       7.67797359      13.97081163       0.00881477       0.00453466      -0.01263443 
O       3.86433799       9.58914097      13.94736106       0.00453247       0.00448051      -0.00800060 
V       4.33123593       6.84072656      16.97340095       0.00686796      -0.00566817       0.00724755 
V       7.34293370       5.79895818      17.54278408       0.02624540      -0.04013337       0.00774476 
O       5.56599572       5.89794193      17.86163477      -0.00499730      -0.00651002       0.00715714 
O       2.95729791       5.78374502      16.56556027       0.00600675       0.00030896       0.01947883 
O       3.85068141       8.08444532      17.84964664       0.00528344       0.00237389       0.01022778 
O       7.71399243       4.33149500      16.56832507       0.01245790      -0.03091764       0.00050445 
O       7.74364761       7.20999876      16.55375978       0.01282562       0.02110689       0.00351905 
O       8.20059256       5.76554234      18.89243880      -0.00938971      -0.02564170       0.01791725 
H       5.03433732       3.93490425      16.40926933       0.00015304      -0.00501305       0.00897122 
H      10.23031989       5.82041739      16.42409371       0.00368967       0.01707615       0.00121012 
