# generated using pymatgen
data_Al2O3
_symmetry_space_group_name_H-M   'P 1'
_cell_length_a   4.80502703
_cell_length_b   4.80502703
_cell_length_c   13.11625289
_cell_angle_alpha   90.00000000
_cell_angle_beta   90.00000000
_cell_angle_gamma   120.00000000
_symmetry_Int_Tables_number   1
_chemical_formula_structural   Al2O3
_chemical_formula_sum   'Al12 O18'
_cell_volume   262.26001602
_cell_formula_units_Z   6
loop_
 _symmetry_equiv_pos_site_id
 _symmetry_equiv_pos_as_xyz
  1  'x, y, z'
loop_
 _atom_site_type_symbol
 _atom_site_label
 _atom_site_symmetry_multiplicity
 _atom_site_fract_x
 _atom_site_fract_y
 _atom_site_fract_z
 _atom_site_occupancy
  Al  Al1  1  0.000000  0.000000  0.352096  1.0
  Al  Al2  1  0.000000  0.000000  0.647904  1.0
  Al  Al3  1  0.333333  0.666667  0.814571  1.0
  Al  Al4  1  0.333333  0.666667  0.518763  1.0
  Al  Al5  1  0.666667  0.333333  0.685429  1.0
  Al  Al6  1  0.666667  0.333333  0.981237  1.0
  Al  Al7  1  0.000000  0.000000  0.147904  1.0
  Al  Al8  1  0.000000  0.000000  0.852096  1.0
  Al  Al9  1  0.333333  0.666667  0.018763  1.0
  Al  Al10  1  0.333333  0.666667  0.314571  1.0
  Al  Al11  1  0.666667  0.333333  0.481237  1.0
  Al  Al12  1  0.666667  0.333333  0.185429  1.0
  O  O13  1  0.000000  0.306146  0.750000  1.0
  O  O14  1  0.000000  0.693854  0.250000  1.0
  O  O15  1  0.693854  0.693854  0.750000  1.0
  O  O16  1  0.306146  0.306146  0.250000  1.0
  O  O17  1  0.306146  0.000000  0.750000  1.0
  O  O18  1  0.693854  0.000000  0.250000  1.0
  O  O19  1  0.639479  0.666667  0.416667  1.0
  O  O20  1  0.027187  0.666667  0.916667  1.0
  O  O21  1  0.027187  0.360521  0.416667  1.0
  O  O22  1  0.639479  0.972813  0.916667  1.0
  O  O23  1  0.333333  0.972813  0.416667  1.0
  O  O24  1  0.333333  0.360521  0.916667  1.0
  O  O25  1  0.666667  0.639479  0.083333  1.0
  O  O26  1  0.666667  0.027187  0.583333  1.0
  O  O27  1  0.360521  0.027187  0.083333  1.0
  O  O28  1  0.972813  0.639479  0.583333  1.0
  O  O29  1  0.972813  0.333333  0.083333  1.0
  O  O30  1  0.360521  0.333333  0.583333  1.0
