# generated using pymatgen
data_ZrO2
_symmetry_space_group_name_H-M   P2_1/c
_cell_length_a   5.23364915
_cell_length_b   5.26845990
_cell_length_c   5.41847621
_cell_angle_alpha   90.00000000
_cell_angle_beta   100.05484518
_cell_angle_gamma   90.00000000
_symmetry_Int_Tables_number   14
_chemical_formula_structural   ZrO2
_chemical_formula_sum   'Zr4 O8'
_cell_volume   147.11041012
_cell_formula_units_Z   4
loop_
 _symmetry_equiv_pos_site_id
 _symmetry_equiv_pos_as_xyz
  1  'x, y, z'
  2  '-x, -y, -z'
  3  '-x, y+1/2, -z+1/2'
  4  'x, -y+1/2, z+1/2'
loop_
 _atom_site_type_symbol
 _atom_site_label
 _atom_site_symmetry_multiplicity
 _atom_site_fract_x
 _atom_site_fract_y
 _atom_site_fract_z
 _atom_site_occupancy
  Zr  Zr1  4  0.275981  0.044180  0.210256  1
  O  O2  4  0.061015  0.180178  0.854613  1
  O  O3  4  0.452990  0.744326  0.978064  1
