10
Lattice="10.3417463 0.0 0.0 -0.0 15.28938 0.0 0.0 0.0 23.4972008" Properties=species:S:1:pos:R:3 comment="pbc=T T T" pbc="T T T"
V       9.21367314       6.73218985      14.79582026 
O       8.35655226       5.14837147      14.70085667 
O       8.05752282       8.22505769      14.62751292 
O       9.95622053       6.86815366      16.19001131 
H       8.09168453       8.91625004      15.31647630 
V      14.30444512       8.66663873      14.71116954 
O      13.38057641      10.12024704      14.50609875 
O      13.20747752       7.11348553      14.59579561 
O      14.96245526       8.64085197      16.15650096 
H      13.15579353       6.50008370      15.35263540 
