115
Lattice="10.341746277552646 0.0 0.0 -2.619435405085487e-16 11.467 0.0 0.0 0.0 23.497200848665354" Properties=species:S:1:pos:R:3:forces:R:3 energy=-845.3062735505656 dipole="-17.247109055779806 2.2855895884275186 -1.3454745477500674" pbc="T T F"
O       8.47657182       1.91117250       6.00000000      -1.85369176      -0.00642491       1.55919923 
O       3.30569868       0.00000000       6.00000000      -1.88864192      -0.00739919       1.60935512 
Ti       1.41275186       0.00000000       6.75295684       3.62501845       0.07057018       1.74922074 
Ti       6.58362500       1.91117250       6.75295684       3.86446302       0.05353258       1.99328503 
Ti       9.52224953       1.91117250       7.64087763      -1.98175962       0.04238922      -2.05849468 
Ti       4.35137640       0.00000000       7.64087763      -1.52882714       0.05440887      -1.68543703 
O       9.86155132       0.00000000       7.50591367       0.97807009      -0.02109951      -0.23692263 
O       4.69067818       1.91117250       7.50591367       0.86846970      -0.08574093      -0.19937943 
O       7.62930272       1.91117250       8.39383447      -0.80801806      -0.02885664      -0.55860633 
O       2.45842958       0.00000000       8.39383447      -0.85736003      -0.00148923      -0.61385418 
O       6.24432321       0.00000000       6.88792080      -0.27360874      -0.06764828      -0.68356949 
O       1.07345007       1.91117250       6.88792080      -0.17098105      -0.11515266      -0.73665339 
O       9.80708658       1.91005119       9.57994963       0.00545971       0.00080887      -0.01833007 
O       4.63981325       0.00011819       9.61595411       0.01886644       0.00075618       0.02389073 
Ti       2.78872552       0.00525019      10.31597572       0.00078772      -0.01738581      -0.02795769 
Ti       7.93298054       1.92890687      10.38961516       0.00211777      -0.00725540       0.00809861 
Ti       0.49396858       1.89228597      11.12074690      -0.00854298       0.01081286       0.01901636 
Ti       5.72566708      -0.00263394      11.23446401      -0.00602246       0.00135976      -0.00333849 
O       0.90812248       0.00430301      11.07530731      -0.00612817       0.00012331       0.00506493 
O       6.08411214       1.91391457      11.08325674      -0.00689830      -0.00001955       0.00728427 
O       9.03614907       1.91371647      11.94177578      -0.01662782      -0.00022019      -0.00497759 
O       3.83452925      11.46372475      11.95876101       0.00209856       0.00182850       0.00840070 
O       7.54374126      11.45737541      10.46333819       0.01605925       0.00002710      -0.00147814 
O       2.39240576       1.90486037      10.44565878       0.01140815       0.01158091      -0.00509124 
O       0.92847488       1.92051227      13.07768045      -0.00310522       0.00347898       0.00552007 
O       6.01672484       0.10908255      13.21407932       0.00078201       0.00053344       0.00150410 
Ti       4.17307433       0.00374923      13.82321951      -0.01848365      -0.00410248      -0.00245901 
Ti       9.41014729       1.96161698      14.01559086       0.02056765       0.01749673       0.00150521 
Ti       1.85318553       1.91114623      14.60566394      -0.00936165      -0.02179630       0.00290298 
Ti       7.24810251      11.45889043      14.80574219      -0.01408321      -0.00051843       0.00158083 
O       2.34755150       0.05694531      14.78370176       0.00215925       0.00583258       0.00218192 
O       7.55721967       1.93637208      14.81252033      -0.01719487       0.01730949       0.01154532 
O       0.22400863       1.96772794      15.45096528      -0.00804609      -0.00423383      -0.01553988 
O       5.22800325      11.14040617      15.58988991      -0.00861121       0.01084227      -0.00489158 
O       9.00436777       0.02953541      13.97523187       0.00716150       0.02305413      -0.00563235 
O       3.85927065       1.92278377      13.97045094       0.01046128       0.00631866      -0.00456983 
O       8.47657182       5.73351750       6.00000000      -1.85585989       0.00710055       1.55639231 
O       3.30569868       3.82234500       6.00000000      -1.88778561      -0.00118603       1.55162088 
Ti       1.41275186       3.82234500       6.75295684       3.85022262       0.00041415       1.97342317 
Ti       6.58362500       5.73351750       6.75295684       3.86456697      -0.05162629       1.99460731 
Ti       9.52224953       5.73351750       7.64087763      -1.98344445      -0.04008192      -2.05891069 
Ti       4.35137640       3.82234500       7.64087763      -1.88559046       0.00256546      -2.02669142 
O       9.86155132       3.82234500       7.50591367       0.92837540      -0.00284576      -0.20372837 
O       4.69067818       5.73351750       7.50591367       0.86870920       0.07106657      -0.19864588 
O       7.62930272       5.73351750       8.39383447      -0.80686215       0.03026166      -0.56381753 
O       2.45842958       3.82234500       8.39383447      -0.83521211       0.01195539      -0.54253556 
O       6.24432321       3.82234500       6.88792080      -0.22265835      -0.00193432      -0.73914647 
O       1.07345007       5.73351750       6.88792080      -0.16870275       0.12042322      -0.73580724 
O       9.80797533       5.73439214       9.57864929       0.00757595      -0.00032233      -0.01317583 
O       4.63869436       3.81856286       9.57942304       0.00585057       0.00165414      -0.02001537 
Ti       2.74166737       3.82221320      10.38953116      -0.00933204       0.00454296      -0.00929924 
Ti       7.93054503       5.70878445      10.38937112       0.00677633       0.01035279       0.00569911 
Ti       0.49396146       5.76835876      11.11794615      -0.00482574      -0.01376962       0.02932352 
Ti       5.63743731       3.82852948      11.13039375       0.00768421      -0.00364610      -0.00279152 
O       0.91823824       3.82308743      11.07401083      -0.00567081       0.00612949       0.00212835 
O       6.08397812       5.72446782      11.07545481      -0.00761484       0.00453402       0.00996114 
O       9.03278492       5.73894251      11.93972271      -0.00645763       0.00240425       0.00011528 
O       3.86592584       3.82949647      11.94837667      -0.01090484      -0.00028438       0.02358787 
O       7.56350863       3.82078397      10.44628557       0.01148713       0.00010058      -0.00595895 
O       2.39136092       5.74819128      10.44717663       0.01390638      -0.01199868      -0.00574332 
O       0.92317575       5.71171045      13.07514118       0.01964543       0.04118568       0.01270409 
O       6.12836562       3.82105303      13.07735426      -0.01579820       0.00329706       0.00220532 
Ti       4.21635240       3.80364397      14.03416448      -0.01720914       0.00490348      -0.00302750 
Ti       9.40703631       5.69996612      14.01378859       0.02857551      -0.00993978       0.00179640 
Ti       1.85092498       5.75097753      14.60089079      -0.01165114       0.01837993       0.02538721 
Ti       7.01953372       3.83003852      14.60425946      -0.00554103       0.00332512      -0.01438739 
O       2.40345765       3.83192399      14.81310064      -0.00545239       0.00537411       0.01014638 
O       7.55717309       5.71987837      14.81265092      -0.01136018      -0.01640552       0.00203378 
O       0.22500537       5.72640590      15.44890687      -0.01908771      -0.00838215      -0.00715008 
O       5.40115654       3.82557460      15.45790831      -0.00954226       0.00717486       0.00211068 
O       9.02629163       3.82897080      13.94859183      -0.00246603       0.00290555       0.00248496 
O       3.86233752       5.74104747      13.96758724       0.00618169      -0.01647029      -0.00874532 
O       8.47657182       9.55586250       6.00000000      -1.90561970       0.00028657       1.61072957 
O       3.30569868       7.64469000       6.00000000      -1.90228621       0.00537379       1.60139539 
Ti       1.41275186       7.64469000       6.75295684       3.62368024      -0.06739948       1.73195142 
Ti       6.58362500       9.55586250       6.75295684       3.80016359      -0.00093285       1.86628386 
Ti       9.52224953       9.55586250       7.64087763      -1.77519240      -0.00071966      -1.81564593 
Ti       4.35137640       7.64469000       7.64087763      -1.50073921      -0.05896931      -1.65688607 
O       9.86155132       7.64469000       7.50591367       0.97840962       0.02734122      -0.23486379 
O       4.69067818       9.55586250       7.50591367       0.86689111       0.00003708      -0.18664220 
O       7.62930272       9.55586250       8.39383447      -0.87317744       0.00465801      -0.55917298 
O       2.45842958       7.64469000       8.39383447      -0.90280799       0.02221411      -0.65245507 
O       6.24432321       7.64469000       6.88792080      -0.27269677       0.06984803      -0.68761542 
O       1.07345007       9.55586250       6.88792080      -0.16154755      -0.00288466      -0.71670906 
O       9.80421659       9.55810617       9.58842439       0.01059557      -0.00086203      -0.00286342 
O       4.63241559       7.63900196       9.61566017       0.01724339      -0.00320406       0.02117269 
Ti       2.80179974       7.64107209      10.30833834      -0.00131640       0.01521697      -0.01552110 
Ti       7.98110204       9.55817677      10.34573437      -0.00460502      -0.00245640       0.00607359 
Ti       0.55636798       9.55764660      11.18767844      -0.00271913      -0.00049720       0.01606205 
Ti       5.74310244       7.66133072      11.24771368      -0.01654265      -0.00316927      -0.01167828 
O       0.90216765       7.64701653      11.08074891      -0.00484768      -0.00133479      -0.00366411 
O       6.07497685       9.55805804      11.12473140      -0.00441947      -0.00113416      -0.00179540 
O       9.06493255       9.56039292      11.93461986      -0.00909183       0.00354686       0.00118720 
O       3.83339581       7.68419778      11.96137697      -0.00965548       0.00464492       0.00927469 
O       7.54406216       7.65779797      10.46284993       0.01265527      -0.00114842       0.00317568 
O       2.39548510       9.55837788      10.43973489       0.00835829       0.00321334      -0.00385238 
O       0.98756492       9.57126601      13.10429690       0.01477006      -0.03035920       0.01655334 
O       6.02568980       7.50106011      13.18115126       0.00240064      -0.00678767       0.00870581 
Ti       4.16699466       7.60459975      13.81226607      -0.01007311       0.00491856      -0.00180058 
Ti       9.41877692       9.55666523      13.89071409       0.03512829       0.00864986      -0.00349709 
Ti       1.83705475       9.57218701      14.80464223      -0.01251144      -0.01603320       0.01300212 
Ti       7.24128639       7.67140248      14.80272564      -0.00189641       0.00615745      -0.00305349 
O       2.35446943       7.60717404      14.77185447       0.01287788      -0.00728477      -0.00311848 
O       7.51718122       9.55812861      14.34592662      -0.01479864       0.00163220       0.00840552 
O       0.15669922       9.55898728      15.44212014      -0.00400994       0.00949001      -0.00590661 
O       5.25440935       8.03998330      15.49753455       0.00459102       0.00273083      -0.00048785 
O       9.00791943       7.62763968      13.96585155       0.01573506      -0.02342169       0.00241283 
O       3.82280529       9.58052362      13.95697971      -0.01595479       0.00049731      -0.00170743 
V       4.67943013       9.57315080      16.26389940      -0.00569288       0.01070097       0.01825158 
V       7.42525539       9.55727656      17.52642391       0.03209384      -0.01153291      -0.00916391 
O       8.19658532       9.55911455      18.92023288      -0.00412528      -0.01113310      -0.00144210 
O       3.04354306       9.55386195      16.56182470      -0.01923912       0.02358415       0.01620050 
O       7.74323618      11.02337495      16.56186676      -0.00590636      -0.01219935      -0.00497510 
O       7.74041423       8.09058410      16.55889588       0.00579144      -0.01093977      -0.00377341 
O       5.59531918       9.54692157      17.77478222      -0.01837585       0.00491215       0.02062057 
