115
Lattice="10.341746277552646 0.0 0.0 -2.619435405085487e-16 11.467 0.0 0.0 0.0 23.497200848665354" Properties=species:S:1:pos:R:3:forces:R:3 energy=-845.2650652946604 dipole="-14.088871718263679 10.580754589661398 -1.554708367905633" pbc="T T F"
O       8.47657182       1.91117250       6.00000000      -1.79099800      -0.00238765       1.57139463 
O       3.30569868       0.00000000       6.00000000      -1.94414238      -0.00180417       1.59808843 
Ti       1.41275186       0.00000000       6.75295684       3.65270441      -0.00052101       1.76901721 
Ti       6.58362500       1.91117250       6.75295684       3.87486536       0.00614361       1.99271278 
Ti       9.52224953       1.91117250       7.64087763      -1.94587326      -0.00081525      -1.58912684 
Ti       4.35137640       0.00000000       7.64087763      -1.59981899      -0.00839874      -2.01771809 
O       9.86155132       0.00000000       7.50591367       0.96963615       0.01455029      -0.21646014 
O       4.69067818       1.91117250       7.50591367       0.86724322      -0.02141205      -0.20278926 
O       7.62930272       1.91117250       8.39383447      -0.83618806       0.00063678      -0.65509404 
O       2.45842958       0.00000000       8.39383447      -0.91474858       0.00583715      -0.49899224 
O       6.24432321       0.00000000       6.88792080      -0.27630263       0.02798501      -0.72097312 
O       1.07345007       1.91117250       6.88792080      -0.16584818       0.00464269      -0.69106075 
O       9.80764260       1.90665625       9.62546882       0.00029951      -0.00052891      -0.00417682 
O       4.62144787      11.45814938       9.58422165      -0.00452393      -0.00449869      -0.00673275 
Ti       2.71685441      -0.05873568      10.33497966      -0.01071211      -0.02909970       0.01591429 
Ti       8.03353274       1.90321017      10.36539037      -0.00785500       0.00753375      -0.02275244 
Ti       0.49774091       1.90843117      11.34484400       0.01163968       0.00904987       0.01465415 
Ti       5.71793345       0.06482785      11.08383452       0.02860448       0.00398131      -0.00060003 
O       0.90023497       0.00168670      11.11229281       0.00410553      -0.00646643      -0.00680801 
O       6.07935940       1.90263654      11.08834529      -0.01882504       0.00006005       0.00849313 
O       9.03525772       1.90996834      12.01027062       0.00783321      -0.00367114       0.01832405 
O       3.84860298       0.01811454      11.93941280       0.00577830       0.00421507      -0.00000322 
O       7.57333467       0.00611769      10.44824744      -0.00202118      -0.00392872      -0.00427798 
O       2.36918858       1.91316654      10.45543820       0.00598604       0.00135897      -0.00542095 
O       0.91839048       1.90348867      13.24414929      -0.01118444       0.00231766      -0.00154566 
O       6.12400099      11.33851014      13.06066391      -0.00478680       0.01107469      -0.00243675 
Ti       4.11394177      11.35687936      13.80199301      -0.01733366       0.00610377      -0.00499820 
Ti       9.49087690       1.90587550      14.13822767       0.01410371      -0.00675303      -0.00843344 
Ti       1.95656659       1.91140215      15.01775821       0.00803256      -0.01305266      -0.00779077 
Ti       7.08401350      11.42341231      14.54808349       0.01079503      -0.00092029      -0.00221872 
O       2.39374531      11.42864583      14.78128208      -0.00060074       0.01099893      -0.00377382 
O       7.55636843       1.90333681      14.79438016      -0.00803112      -0.00580403       0.00135677 
O       0.24019363       1.91008609      15.63607733      -0.00182713      -0.00845895      -0.00620365 
O       5.37618461       0.27507314      15.46243748       0.01252943       0.00795018       0.00335536 
O       9.02253163      11.45047256      14.13831414       0.00441932      -0.00563023      -0.00217676 
O       3.84547287       1.92073725      13.93629612       0.00385386      -0.01533927      -0.00412555 
O       8.47657182       5.73351750       6.00000000      -1.78040220      -0.00351231       1.56089366 
O       3.30569868       3.82234500       6.00000000      -1.95954823      -0.00377896       1.59229067 
Ti       1.41275186       3.82234500       6.75295684       3.65027695      -0.01513339       1.75514876 
Ti       6.58362500       5.73351750       6.75295684       3.91486701       0.01586512       2.03357048 
Ti       9.52224953       5.73351750       7.64087763      -2.01578916      -0.00378168      -1.59757757 
Ti       4.35137640       3.82234500       7.64087763      -1.57943553       0.03401827      -2.03274847 
O       9.86155132       3.82234500       7.50591367       0.96972154      -0.02708825      -0.21127876 
O       4.69067818       5.73351750       7.50591367       0.85388176      -0.04183465      -0.21440665 
O       7.62930272       5.73351750       8.39383447      -0.83922600      -0.00721177      -0.74611167 
O       2.45842958       3.82234500       8.39383447      -0.91793103       0.01100618      -0.50183048 
O       6.24432321       3.82234500       6.88792080      -0.27658164      -0.02965813      -0.72180111 
O       1.07345007       5.73351750       6.88792080      -0.14542663       0.02365364      -0.69621963 
O       9.81150049       5.72686277       9.61944629       0.00909004      -0.00244404      -0.01322522 
O       4.62378465       3.81292126       9.58032485      -0.00433326      -0.00663422      -0.01055528 
Ti       2.71227961       3.75384015      10.33269236      -0.01185827      -0.03456127       0.01414035 
Ti       8.02459592       5.72974448      10.37536143       0.00438807      -0.00614414      -0.01177334 
Ti       0.49394269       5.73017315      11.31440573      -0.02544934      -0.01007161      -0.01550874 
Ti       5.72755414       3.88487961      11.07100713       0.01087615      -0.00929518      -0.00109857 
O       0.90078199       3.81469917      11.11080264       0.00447326      -0.00548876       0.00161635 
O       6.08169941       5.73037975      11.06448721       0.00070256      -0.00028486       0.00632449 
O       9.01194316       5.73400633      11.99059447       0.00073513       0.00755268       0.01895787 
O       3.84876765       3.81582681      11.93016975       0.00323801      -0.00196895       0.00423348 
O       7.57348170       3.81409990      10.44659946      -0.00641754       0.00384109       0.00688489 
O       2.36185052       5.73766898      10.45774423       0.01732644      -0.01670367      -0.00787210 
O       0.86040732       5.69968373      13.21622878      -0.00059805      -0.00942895       0.00138955 
O       6.10967831       3.85743167      13.05987376      -0.01877427      -0.00316034       0.00431711 
Ti       4.11697956       3.76161408      13.78747043      -0.02530744       0.00540375      -0.01568303 
Ti       9.51937713       5.74010437      14.12101356      -0.00348199       0.00064079      -0.01380541 
Ti       1.97983223       5.72734587      15.01900041      -0.00365981       0.01146065      -0.00196092 
Ti       7.08195442       3.84454286      14.54582115       0.00085037       0.00213941       0.00606854 
O       2.39257458       3.84053510      14.78426380      -0.03250797       0.00224483      -0.02526720 
O       7.44298015       5.71951332      14.82346430      -0.02097825       0.00413914       0.00378889 
O       0.23528644       5.74325208      15.61825905       0.00803337      -0.01336603       0.00940432 
O       5.38341458       3.53596775      15.47343047       0.00519858      -0.01901984      -0.01042655 
O       9.01879110       3.82867768      14.13709047       0.00926972       0.00154531       0.01428632 
O       3.90676390       5.69941038      13.93641221       0.00330042       0.00200149       0.01485105 
O       8.47657182       9.55586250       6.00000000      -1.78735955       0.00115824       1.56057624 
O       3.30569868       7.64469000       6.00000000      -2.02758676      -0.00154593       1.57665153 
Ti       1.41275186       7.64469000       6.75295684       3.59869454      -0.00712581       1.65331765 
Ti       6.58362500       9.55586250       6.75295684       3.90556576      -0.01317126       2.01942121 
Ti       9.52224953       9.55586250       7.64087763      -1.99637740      -0.00127780      -1.60424011 
Ti       4.35137640       7.64469000       7.64087763      -1.43711894       0.00873500      -2.08137440 
O       9.86155132       7.64469000       7.50591367       0.98337100      -0.00440773      -0.20867570 
O       4.69067818       9.55586250       7.50591367       0.85606835       0.02362436      -0.21354752 
O       7.62930272       9.55586250       8.39383447      -0.83784801       0.01431648      -0.74047408 
O       2.45842958       7.64469000       8.39383447      -0.92674572       0.01146867      -0.51689410 
O       6.24432321       7.64469000       6.88792080      -0.28179157       0.00658738      -0.72675024 
O       1.07345007       9.55586250       6.88792080      -0.14797208      -0.01907010      -0.69733593 
O       9.81211610       9.55707478       9.61799491       0.00720804       0.00291809      -0.00483598 
O       4.63748250       7.63748687       9.56350240      -0.00297339      -0.01000801      -0.01570066 
Ti       2.69930783       7.58436918      10.31448260       0.00456046      -0.02796423       0.02399480 
Ti       8.02319100       9.55744314      10.37173868      -0.01361373       0.00149778       0.00526096 
Ti       0.48838845       9.55939025      11.31635683      -0.00405473       0.00283115      -0.00890248 
Ti       5.74050118       7.70749702      11.04977996       0.00285506       0.01165134      -0.00493871 
O       0.90218833       7.64325016      11.11073603      -0.00179820      -0.00224435       0.00804354 
O       6.08121555       9.54613891      11.05693270       0.00529212       0.01591769       0.00005964 
O       9.01252082       9.55387283      11.99049920       0.00018200      -0.00650911       0.00913469 
O       3.87467620       7.64359414      11.87835055      -0.00323732       0.00255439       0.00593178 
O       7.58990279       7.64424654      10.44218478      -0.00584928      -0.00339237      -0.00123086 
O       2.36629303       9.56080358      10.45889470      -0.00145745       0.01273535      -0.00359002 
O       0.86182888       9.57160662      13.21764873      -0.00155774       0.00538491      -0.00003738 
O       6.14572223       7.63144229      13.06765784      -0.00801152      -0.00288578      -0.00243262 
Ti       4.08023597       7.53536960      13.71713545      -0.02277300       0.00289697      -0.00570548 
Ti       9.52006010       9.53935019      14.12624937       0.00015813      -0.01576416      -0.01051976 
Ti       1.97885029       9.54507753      15.01427491      -0.00577868      -0.00074862       0.00611370 
Ti       7.02137490       7.63790810      14.59046281      -0.01106231       0.00381575       0.00815039 
O       2.33842027       7.63460396      14.38907627      -0.00389612      -0.00365502       0.00261033 
O       7.46319694       9.55310187      14.83629865      -0.00984080      -0.00062853      -0.01356216 
O       0.23555097       9.53575914      15.62087338       0.00303241      -0.00580886      -0.00991695 
O       5.24982960       7.63670091      15.50513012       0.00423892      -0.00255976       0.00475866 
O       8.97756875       7.63689107      14.14561628      -0.00560280      -0.00129269       0.01718191 
O       3.91347720       9.56774452      13.94000044      -0.00933632      -0.01854676       0.00583156 
V       4.87051587       1.90469387      16.25722280       0.00375051      -0.00974492       0.00069227 
V       3.91743393       7.63957564      16.80784163       0.00696188       0.00282310      -0.00498530 
O       4.53915133       7.64309039      18.27080889       0.01379040       0.00691207       0.00187234 
O       3.16102654       1.90427350      16.55152702       0.00275741      -0.00546970      -0.00520312 
O       5.60841116       1.90678073      17.65957979       0.01293978      -0.01063054       0.00824215 
O       2.92572002       9.10065479      16.55860723       0.01364429       0.01814669      -0.00673392 
O       2.94038686       6.16767859      16.55705891      -0.00219037       0.00128068       0.00420710 
