118
Lattice="10.341746277552646 0.0 0.0 -2.619435405085487e-16 11.467 0.0 0.0 0.0 23.497200848665354" Properties=species:S:1:pos:R:3:forces:R:3 energy=-858.6504619186572 pbc="T T F"
O       8.47657182       1.91117250       6.00000000       0.00000000       0.00000000       0.00000000 
O       3.30569868       0.00000000       6.00000000       0.00000000       0.00000000       0.00000000 
Ti       1.41275186       0.00000000       6.75295684       0.00000000       0.00000000       0.00000000 
Ti       6.58362500       1.91117250       6.75295684       0.00000000       0.00000000       0.00000000 
Ti       9.52224953       1.91117250       7.64087763       0.00000000       0.00000000       0.00000000 
Ti       4.35137640       0.00000000       7.64087763       0.00000000       0.00000000       0.00000000 
O       9.86155132       0.00000000       7.50591367       0.00000000       0.00000000       0.00000000 
O       4.69067818       1.91117250       7.50591367       0.00000000       0.00000000       0.00000000 
O       7.62930272       1.91117250       8.39383447       0.00000000       0.00000000       0.00000000 
O       2.45842958       0.00000000       8.39383447       0.00000000       0.00000000       0.00000000 
O       6.24432321       0.00000000       6.88792080       0.00000000       0.00000000       0.00000000 
O       1.07345007       1.91117250       6.88792080       0.00000000       0.00000000       0.00000000 
O       9.81329954       1.90425508       9.61046494       0.00423319       0.00976853      -0.00413801 
O       4.62326377      11.47058797       9.58104870       0.00695904       0.00260776       0.00217004 
Ti       2.71455532      11.52860746      10.33974791       0.00591930       0.01450216      -0.00622008 
Ti       8.01884742       1.90950594      10.37196287      -0.00107932       0.00208686       0.00748677 
Ti       0.50398624       1.91391514      11.28832275      -0.01845849       0.00911271       0.02742284 
Ti       5.72059521      11.39422671      11.07773402      -0.02338715       0.00766915       0.00441615 
O       0.90153274      11.46601068      11.10517438      -0.01204350       0.00863769       0.02632262 
O       6.08166827       1.91377874      11.05485548       0.01276806       0.01141840      -0.00615277 
O       9.01219419       1.96392763      11.97494934      -0.00305259      -0.02114287      -0.01591190 
O       3.83965584      11.45579109      11.93125309      -0.00980120       0.00783263       0.00756713 
O       7.57796635      11.45603840      10.45225950       0.00594961      -0.00390152      -0.00064832 
O       2.36481447       1.91104198      10.45516923      -0.00063532       0.01681762       0.00422249 
O       0.86779424       1.90991542      13.18674618      -0.00888718      -0.00354050       0.02635823 
O       6.08897936       0.11846505      13.04878039       0.00711061       0.00166867       0.01982952 
Ti       4.09695294       0.11429210      13.79872008       0.00152659      -0.00069442      -0.00100659 
Ti       9.51548513       1.94787297      14.07622229      -0.00025332       0.01306168       0.02158267 
Ti       1.96044510       1.91947618      14.99346233      -0.01679229      -0.01138932       0.00939629 
Ti       7.08715627       0.02121501      14.51097690      -0.00190614      -0.01620525       0.00532614 
O       2.38285837       0.03972904      14.78247538       0.00013383       0.00159370      -0.00271306 
O       7.48552727       1.90422164      14.83376526       0.00919344      -0.00733883      -0.00004148 
O       0.21497842       1.90833450      15.58450244      -0.00957660       0.02623210       0.02183954 
O       5.37500664      11.20652394      15.45612069      -0.00586806       0.01679498      -0.02034332 
O       9.02980749       0.03459249      13.97699639      -0.01200631       0.01227849       0.00292348 
O       3.89868673       1.90422426      13.93988243      -0.00488145      -0.00096798      -0.00439534 
O       8.47657182       5.73351750       6.00000000       0.00000000       0.00000000       0.00000000 
O       3.30569868       3.82234500       6.00000000       0.00000000       0.00000000       0.00000000 
Ti       1.41275186       3.82234500       6.75295684       0.00000000       0.00000000       0.00000000 
Ti       6.58362500       5.73351750       6.75295684       0.00000000       0.00000000       0.00000000 
Ti       9.52224953       5.73351750       7.64087763       0.00000000       0.00000000       0.00000000 
Ti       4.35137640       3.82234500       7.64087763       0.00000000       0.00000000       0.00000000 
O       9.86155132       3.82234500       7.50591367       0.00000000       0.00000000       0.00000000 
O       4.69067818       5.73351750       7.50591367       0.00000000       0.00000000       0.00000000 
O       7.62930272       5.73351750       8.39383447       0.00000000       0.00000000       0.00000000 
O       2.45842958       3.82234500       8.39383447       0.00000000       0.00000000       0.00000000 
O       6.24432321       3.82234500       6.88792080       0.00000000       0.00000000       0.00000000 
O       1.07345007       5.73351750       6.88792080       0.00000000       0.00000000       0.00000000 
O       9.81358712       5.74704066       9.61550347      -0.00340383      -0.00527944       0.00090874 
O       4.64388007       3.83044121       9.56009606      -0.00577219       0.00589893       0.01279537 
Ti       2.69888392       3.90022064      10.31703991      -0.00359154       0.00363856      -0.00130185 
Ti       8.00611113       5.73640825      10.37655629      -0.01701819       0.00026296      -0.01717895 
Ti       0.48987665       5.75452469      11.28307727       0.00105295      -0.00137950       0.00911107 
Ti       5.73491867       3.74995185      11.05086020      -0.01106040       0.01198459       0.01218251 
O       0.90784660       3.83646465      11.10219776      -0.00222397       0.00732290       0.01193800 
O       6.08657020       5.73567922      11.07684230       0.00539150      -0.01006897      -0.00543996 
O       9.01227681       5.72582951      11.98328111      -0.01242632       0.03972336      -0.00359866 
O       3.86838016       3.83266615      11.87306214      -0.01850559       0.00326511      -0.00006335 
O       7.57632148       3.82431876      10.43674391       0.02007123      -0.00605571       0.00603330 
O       2.36835277       5.74263152      10.45358537       0.00679059       0.00777859       0.01252532 
O       0.85211134       5.76966895      13.21107043       0.00704648       0.00382480      -0.02241447 
O       6.11887939       3.80807125      13.07265672      -0.01743006       0.00290748      -0.00333948 
Ti       4.05556510       3.94783302      13.71780387      -0.00741281       0.00561132       0.00228595 
Ti       9.51808241       5.71283822      14.08434227       0.00377461       0.00001617       0.01223096 
Ti       1.95473798       5.76130139      15.00845412       0.00651691       0.00036196       0.00227873 
Ti       6.98716481       3.78020861      14.59781961       0.02065326      -0.00993361      -0.02563834 
O       2.32154591       3.83974668      14.38320145      -0.00204880       0.00335301       0.03151822 
O       7.38505900       5.70193302      14.80068914       0.03607866       0.02356600       0.00651906 
O       0.21001367       5.75630426      15.60740289       0.00144176      -0.00653788      -0.01394917 
O       5.21114923       3.82831019      15.50963623      -0.00576013      -0.00048332      -0.00695597 
O       8.96340959       3.83744600      14.14003243       0.01022768      -0.01332728       0.03735346 
O       3.89334722       5.78113935      13.94172175      -0.00725026       0.00476249       0.00532197 
O       8.47657182       9.55586250       6.00000000       0.00000000       0.00000000       0.00000000 
O       3.30569868       7.64469000       6.00000000       0.00000000       0.00000000       0.00000000 
Ti       1.41275186       7.64469000       6.75295684       0.00000000       0.00000000       0.00000000 
Ti       6.58362500       9.55586250       6.75295684       0.00000000       0.00000000       0.00000000 
Ti       9.52224953       9.55586250       7.64087763       0.00000000       0.00000000       0.00000000 
Ti       4.35137640       7.64469000       7.64087763       0.00000000       0.00000000       0.00000000 
O       9.86155132       7.64469000       7.50591367       0.00000000       0.00000000       0.00000000 
O       4.69067818       9.55586250       7.50591367       0.00000000       0.00000000       0.00000000 
O       7.62930272       9.55586250       8.39383447       0.00000000       0.00000000       0.00000000 
O       2.45842958       7.64469000       8.39383447       0.00000000       0.00000000       0.00000000 
O       6.24432321       7.64469000       6.88792080       0.00000000       0.00000000       0.00000000 
O       1.07345007       9.55586250       6.88792080       0.00000000       0.00000000       0.00000000 
O       9.80714514       9.55983070       9.62086051      -0.00745168       0.00444194      -0.00492310 
O       4.63399935       7.65237897       9.59422003      -0.00507850       0.00313839      -0.01931918 
Ti       2.74898168       7.72281093      10.32458844      -0.00137783      -0.01236836      -0.00138131 
Ti       8.03123484       9.55115512      10.35292346       0.02210015       0.01220176       0.01256780 
Ti       0.51101306       9.54679489      11.33795982      -0.01005194       0.00203088      -0.00751049 
Ti       5.73352580       7.58309007      11.13556955      -0.02495061       0.00852015       0.00368941 
O       0.90396335       7.65554686      11.10853945      -0.00389071      -0.00317755       0.01856693 
O       6.08097506       9.55745324      11.09236277       0.00605934       0.01117619      -0.00364572 
O       9.04686313       9.52698013      12.00419108      -0.01598984       0.00119881      -0.00603639 
O       3.85071621       7.66210268      11.93537342       0.00093323       0.00160707      -0.00804520 
O       7.57062281       7.64861950      10.45162872       0.01254926       0.01575508      -0.01382959 
O       2.37324385       9.55431468      10.45154243       0.00693332      -0.00794820       0.00938542 
O       0.93294710       9.57355039      13.23646279       0.00995858       0.00220904      -0.01646976 
O       6.08839179       7.60966724      13.12358603       0.00447303      -0.01005507      -0.00542579 
Ti       4.15113003       7.72340940      13.79171355       0.00558186      -0.00347117       0.00999271 
Ti       9.47265154       9.61595866      14.08686747      -0.02795035      -0.00222470       0.01282977 
Ti       1.94545107       9.54809657      15.00066613      -0.00458397       0.00269609       0.02026157 
Ti       7.13967073       7.54889704      14.65986475       0.02107005       0.01792793       0.00105199 
O       2.37734588       7.64137598      14.79377056      -0.00591070       0.02200774       0.01475318 
O       7.57608041       9.63822066      14.77497989       0.01161198       0.01085387       0.00042162 
O       0.21653444       9.56693042      15.61605036       0.00275106       0.00269213       0.00036821 
O       5.34428767       7.99175053      15.46831844       0.00365759      -0.01456841      -0.01826192 
O       8.98821577       7.63096773      14.13776664      -0.01875422       0.00186281      -0.00301342 
O       3.81931462       9.56087513      13.92983905       0.00422211       0.00483683       0.00304850 
V       4.89297769       9.58874801      16.26291515      -0.02348833       0.00705150       0.00364715 
V       3.86478951       3.82591327      16.80254078       0.00128668      -0.00017835       0.01531536 
O       7.74405291       7.67076261      16.77921030      -0.00024628       0.00096016      -0.00131658 
O       4.50992056       3.82169872      18.25791026       0.01082237      -0.00257082       0.00186261 
O       3.19605166       9.58301141      16.56367663      -0.00165836      -0.00710891       0.00519368 
O       2.85843346       2.37145672      16.56267913       0.00443046       0.01618517       0.01150044 
O       5.76686969       9.53250462      17.62231788       0.00681549      -0.00284449       0.00780366 
O       2.86042683       5.28620617      16.56671339       0.00851920       0.00122431       0.00026585 
H       8.66668518       7.99608066      16.91798510      -0.01315354      -0.00021674      -0.01349315 
H       7.15119809       8.32084441      17.26800099      -0.00034444       0.01042649       0.00403916 
